/*---------------------------------------------------------------------------*\
| =========                 |                                                 |
| \\      /  F ield         | OpenFOAM: The Open Source CFD Toolbox           |
|  \\    /   O peration     | Version:  v1912                                 |
|   \\  /    A nd           | Website:  www.openfoam.com                      |
|    \\/     M anipulation  |                                                 |
\*---------------------------------------------------------------------------*/
Build  : _f3950763fe-20191219 OPENFOAM=1912
Arch   : "LSB;label=32;scalar=64"
Exec   : blockMesh
Date   : Mar 03 2021
Time   : 13:38:16
Host   : DESKTOP-2ORJ9TT
PID    : 1735
I/O    : uncollated
Case   : /home/suraj/OpenFoam-v1912/SrjOpenFoamTutorials/Intermediate_OpenFOAM/2_snappy_pipe_detailed
nProcs : 1
trapFpe: Floating point exception trapping enabled (FOAM_SIGFPE).
fileModificationChecking : Monitoring run-time modified files using timeStampMaster (fileModificationSkew 10)
allowSystemOperations : Allowing user-supplied system call operations

// * * * * * * * * * * * * * * * * * * * * * * * * * * * * * * * * * * * * * //
Create time

Creating block mesh from "system/blockMeshDict"
Creating block edges
No non-planar block faces defined
Creating topology blocks
Creating topology patches

Creating block mesh topology

Check topology

	Basic statistics
		Number of internal faces : 0
		Number of boundary faces : 6
		Number of defined boundary faces : 6
		Number of undefined boundary faces : 0
	Checking patch -> block consistency

Creating block offsets
Creating merge list...
Deleting polyMesh directory "constant/polyMesh"

Creating polyMesh from blockMesh
Creating patches
Creating cells
Creating points with scale 1
    Block 0 cell size :
        i : 0.1 .. 0.1
        j : 0.1 .. 0.1
        k : 0.42 .. 0.42


There are no merge patch pairs

Writing polyMesh with 0 cellZones
----------------
Mesh Information
----------------
  boundingBox: (-1 -1 -1) (1 1 41)
  nPoints: 44541
  nCells: 40000
  nFaces: 124400
  nInternalFaces: 115600
----------------
Patches
----------------
  patch 0 (start: 115600 size: 2000) name: movingWall
  patch 1 (start: 117600 size: 2000) name: leftSide
  patch 2 (start: 119600 size: 2000) name: rightSide
  patch 3 (start: 121600 size: 2000) name: fixedWall
  patch 4 (start: 123600 size: 800) name: frontAndBack

End

